       4
 i =        7, E =       -12.4756658146
  C         4.3964520668        2.0000000000        2.0000000000
  C         5.6035480213        2.0000000000        2.0000000000
  H         3.3272884681        2.0000000000        2.0000000000
  H         6.6727114452        2.0000000000        2.0000000000
